/*--------------------------------*- C++ -*----------------------------------*\
| =========                 |                                                 |
| \\      /  F ield         | OpenFOAM: The Open Source CFD Toolbox           |
|  \\    /   O peration     | Version:  v2306                                 |
|   \\  /    A nd           | Website:  www.openfoam.com                      |
|    \\/     M anipulation  |                                                 |
\*---------------------------------------------------------------------------*/
FoamFile
{
    version     2.0;
    format      ascii;
    class       dictionary;
    object      setFieldsDict;
}
// * * * * * * * * * * * * * * * * * * * * * * * * * * * * * * * * * * * * * //

defaultFieldValues
(
    volVectorFieldValue U (1 0 0)
    volScalarFieldValue T 0.0
);

regions
(
    cylinderToCell
    {
        p1 (5 5 0); 
        p2 (5 5 1);
        radius 1.0;

        fieldValues
        (
            volScalarFieldValue T 1.0
        );
    }
);


// ************************************************************************* //
